pcf
* control data
restart estimation
   133  31919     6      0    101
    12     1   single   point   1   0   0
5.0   2.0    0.3    0.03    10  999
5.0   5.0   1.0e-3
0.1  noaui
-1   .005  4   4  .005   4
1    1    1
* parameter groups
well_bias    relative     1.0000E-02   0.000      switch      2.000      parabolic
ghb_cd       relative     1.0000E-02   0.000      switch      2.000      parabolic
flow_bias    absolute     1.0000E-02   0.000      always_3    2.000      parabolic
rch_bias     relative     1.0000E-02   0.000      switch      2.000      parabolic
extdp_bias   relative     1.0000E-02   0.000      switch      2.000      parabolic
et_bias      relative     1.0000E-02   0.000      switch      2.000      parabolic
* parameter data
nw_11        log    factor        1.0000       1.00000E-10   1.00000E+10  well_bias      1.000       0.000        1
nw_12        log    factor        1.0000       1.00000E-10   1.00000E+10  well_bias      1.000       0.000        1
nw_13        log    factor        1.0000       1.00000E-10   1.00000E+10  well_bias      1.000       0.000        1
nw_14        log    factor        1.0000       1.00000E-10   1.00000E+10  well_bias      1.000       0.000        1
nw_15        log    factor        1.0000       1.00000E-10   1.00000E+10  well_bias      1.000       0.000        1
nw_1         log    factor        1.0000       1.00000E-10   1.00000E+10  well_bias      1.000       0.000        1
nw_2         log    factor        1.0000       1.00000E-10   1.00000E+10  well_bias      1.000       0.000        1
nw_3         log    factor        1.0000       1.00000E-10   1.00000E+10  well_bias      1.000       0.000        1
nw_4         log    factor        1.0000       1.00000E-10   1.00000E+10  well_bias      1.000       0.000        1
nw_5         log    factor        1.0000       1.00000E-10   1.00000E+10  well_bias      1.000       0.000        1
nw_6         log    factor        1.0000       1.00000E-10   1.00000E+10  well_bias      1.000       0.000        1
nw_7         log    factor        1.0000       1.00000E-10   1.00000E+10  well_bias      1.000       0.000        1
nw_8         log    factor        1.0000       1.00000E-10   1.00000E+10  well_bias      1.000       0.000        1
nw_9         log    factor        1.0000       1.00000E-10   1.00000E+10  well_bias      1.000       0.000        1
nw_10        log    factor        1.0000       1.00000E-10   1.00000E+10  well_bias      1.000       0.000        1
or1          log    factor        1.0000       1.00000E-10   1.00000E+10  well_bias      1.000       0.000        1
or2          log    factor        1.0000       1.00000E-10   1.00000E+10  well_bias      1.000       0.000        1
or3          log    factor        1.0000       1.00000E-10   1.00000E+10  well_bias      1.000       0.000        1
or4          log    factor        1.0000       1.00000E-10   1.00000E+10  well_bias      1.000       0.000        1
or5          log    factor        1.0000       1.00000E-10   1.00000E+10  well_bias      1.000       0.000        1
or6          log    factor        1.0000       1.00000E-10   1.00000E+10  well_bias      1.000       0.000        1
or7          log    factor        1.0000       1.00000E-10   1.00000E+10  well_bias      1.000       0.000        1
or8          log    factor        1.0000       1.00000E-10   1.00000E+10  well_bias      1.000       0.000        1
or9          log    factor        1.0000       1.00000E-10   1.00000E+10  well_bias      1.000       0.000        1
or10         log    factor        1.0000       1.00000E-10   1.00000E+10  well_bias      1.000       0.000        1
sc1          log    factor        1.0000       1.00000E-10   1.00000E+10  well_bias      1.000       0.000        1
sc2          log    factor        1.0000       1.00000E-10   1.00000E+10  well_bias      1.000       0.000        1
sc3          log    factor        1.0000       1.00000E-10   1.00000E+10  well_bias      1.000       0.000        1
sc4          log    factor        1.0000       1.00000E-10   1.00000E+10  well_bias      1.000       0.000        1
sw8          log    factor        1.0000       1.00000E-10   1.00000E+10  well_bias      1.000       0.000        1
sw9          log    factor        1.0000       1.00000E-10   1.00000E+10  well_bias      1.000       0.000        1
sw10         log    factor        1.0000       1.00000E-10   1.00000E+10  well_bias      1.000       0.000        1
sw11         log    factor        1.0000       1.00000E-10   1.00000E+10  well_bias      1.000       0.000        1
sw12         log    factor        1.0000       1.00000E-10   1.00000E+10  well_bias      1.000       0.000        1
sw13         log    factor        1.0000       1.00000E-10   1.00000E+10  well_bias      1.000       0.000        1
sw14         log    factor        1.0000       1.00000E-10   1.00000E+10  well_bias      1.000       0.000        1
sw1          log    factor        1.0000       1.00000E-10   1.00000E+10  well_bias      1.000       0.000        1
sw2          log    factor        1.0000       1.00000E-10   1.00000E+10  well_bias      1.000       0.000        1
sw3          log    factor        1.0000       1.00000E-10   1.00000E+10  well_bias      1.000       0.000        1
sw4          log    factor        1.0000       1.00000E-10   1.00000E+10  well_bias      1.000       0.000        1
sw5          log    factor        1.0000       1.00000E-10   1.00000E+10  well_bias      1.000       0.000        1
sw6          log    factor        1.0000       1.00000E-10   1.00000E+10  well_bias      1.000       0.000        1
sw7          log    factor        1.0000       1.00000E-10   1.00000E+10  well_bias      1.000       0.000        1
ww1          log    factor        1.0000       1.00000E-10   1.00000E+10  well_bias      1.000       0.000        1
ww2          log    factor        1.0000       1.00000E-10   1.00000E+10  well_bias      1.000       0.000        1
ww3          log    factor        1.0000       1.00000E-10   1.00000E+10  well_bias      1.000       0.000        1
1_ghbcnd_jan log    factor       2.50000E+06   1.00000E-10   1.00000E+10  ghb_cd         1.000       0.000        1
2_ghbcnd_jan log    factor       2.50000E+06   1.00000E-10   1.00000E+10  ghb_cd         1.000       0.000        1
3_ghbcnd_jan log    factor       2.50000E+06   1.00000E-10   1.00000E+10  ghb_cd         1.000       0.000        1
1_ghbcnd_feb log    factor       2.50000E+06   1.00000E-10   1.00000E+10  ghb_cd         1.000       0.000        1
2_ghbcnd_feb log    factor       2.50000E+06   1.00000E-10   1.00000E+10  ghb_cd         1.000       0.000        1
3_ghbcnd_feb log    factor       2.50000E+06   1.00000E-10   1.00000E+10  ghb_cd         1.000       0.000        1
1_ghbcnd_mar log    factor       2.50000E+06   1.00000E-10   1.00000E+10  ghb_cd         1.000       0.000        1
2_ghbcnd_mar log    factor       2.50000E+06   1.00000E-10   1.00000E+10  ghb_cd         1.000       0.000        1
3_ghbcnd_mar log    factor       2.50000E+06   1.00000E-10   1.00000E+10  ghb_cd         1.000       0.000        1
1_ghbcnd_apr log    factor       2.50000E+06   1.00000E-10   1.00000E+10  ghb_cd         1.000       0.000        1
2_ghbcnd_apr log    factor       2.50000E+06   1.00000E-10   1.00000E+10  ghb_cd         1.000       0.000        1
3_ghbcnd_apr log    factor       2.50000E+06   1.00000E-10   1.00000E+10  ghb_cd         1.000       0.000        1
1_ghbcnd_may log    factor       2.50000E+06   1.00000E-10   1.00000E+10  ghb_cd         1.000       0.000        1
2_ghbcnd_may log    factor       2.50000E+06   1.00000E-10   1.00000E+10  ghb_cd         1.000       0.000        1
3_ghbcnd_may log    factor       2.50000E+06   1.00000E-10   1.00000E+10  ghb_cd         1.000       0.000        1
1_ghbcnd_jun log    factor       2.50000E+06   1.00000E-10   1.00000E+10  ghb_cd         1.000       0.000        1
2_ghbcnd_jun log    factor       2.50000E+06   1.00000E-10   1.00000E+10  ghb_cd         1.000       0.000        1
3_ghbcnd_jun log    factor       2.50000E+06   1.00000E-10   1.00000E+10  ghb_cd         1.000       0.000        1
1_ghbcnd_jul log    factor       2.50000E+06   1.00000E-10   1.00000E+10  ghb_cd         1.000       0.000        1
2_ghbcnd_jul log    factor       2.50000E+06   1.00000E-10   1.00000E+10  ghb_cd         1.000       0.000        1
3_ghbcnd_jul log    factor       2.50000E+06   1.00000E-10   1.00000E+10  ghb_cd         1.000       0.000        1
1_ghbcnd_aug log    factor       2.50000E+06   1.00000E-10   1.00000E+10  ghb_cd         1.000       0.000        1
2_ghbcnd_aug log    factor       2.50000E+06   1.00000E-10   1.00000E+10  ghb_cd         1.000       0.000        1
3_ghbcnd_aug log    factor       2.50000E+06   1.00000E-10   1.00000E+10  ghb_cd         1.000       0.000        1
1_ghbcnd_sep log    factor       2.50000E+06   1.00000E-10   1.00000E+10  ghb_cd         1.000       0.000        1
2_ghbcnd_sep log    factor       2.50000E+06   1.00000E-10   1.00000E+10  ghb_cd         1.000       0.000        1
3_ghbcnd_sep log    factor       2.50000E+06   1.00000E-10   1.00000E+10  ghb_cd         1.000       0.000        1
1_ghbcnd_oct log    factor       2.50000E+06   1.00000E-10   1.00000E+10  ghb_cd         1.000       0.000        1
2_ghbcnd_oct log    factor       2.50000E+06   1.00000E-10   1.00000E+10  ghb_cd         1.000       0.000        1
3_ghbcnd_oct log    factor       2.50000E+06   1.00000E-10   1.00000E+10  ghb_cd         1.000       0.000        1
1_ghbcnd_nov log    factor       2.50000E+06   1.00000E-10   1.00000E+10  ghb_cd         1.000       0.000        1
2_ghbcnd_nov log    factor       2.50000E+06   1.00000E-10   1.00000E+10  ghb_cd         1.000       0.000        1
3_ghbcnd_nov log    factor       2.50000E+06   1.00000E-10   1.00000E+10  ghb_cd         1.000       0.000        1
1_ghbcnd_dec log    factor       2.50000E+06   1.00000E-10   1.00000E+10  ghb_cd         1.000       0.000        1
2_ghbcnd_dec log    factor       2.50000E+06   1.00000E-10   1.00000E+10  ghb_cd         1.000       0.000        1
3_ghbcnd_dec log    factor       2.50000E+06   1.00000E-10   1.00000E+10  ghb_cd         1.000       0.000        1
s_21         none   relative      0.0000       -2.0000        2.0000      flow_bias      1.000       0.000        1
s_25         none   relative      0.0000       -2.0000        2.0000      flow_bias      1.000       0.000        1
s_22         none   relative      0.0000       -2.0000        2.0000      flow_bias      1.000       0.000        1
s_148        none   relative      0.0000       -2.0000        2.0000      flow_bias      1.000       0.000        1
s_118        none   relative      0.0000       -2.0000        2.0000      flow_bias      1.000       0.000        1
s_123        none   relative      0.0000       -2.0000        2.0000      flow_bias      1.000       0.000        1
s_119        none   relative      0.0000       -2.0000        2.0000      flow_bias      1.000       0.000        1
g_93         none   relative      0.0000       -2.0000        2.0000      flow_bias      1.000       0.000        1
g_114        none   relative      0.0000       -2.0000        2.0000      flow_bias      1.000       0.000        1
s_149        none   relative      0.0000       -2.0000        2.0000      flow_bias      1.000       0.000        1
s_25b        none   relative      0.0000       -2.0000        2.0000      flow_bias      1.000       0.000        1
s_120        none   relative      0.0000       -2.0000        2.0000      flow_bias      1.000       0.000        1
nw12th       none   relative      0.0000       -2.0000        2.0000      flow_bias      1.000       0.000        1
nw58th       none   relative      0.0000       -2.0000        2.0000      flow_bias      1.000       0.000        1
nw25th       none   relative      0.0000       -2.0000        2.0000      flow_bias      1.000       0.000        1
rchmult_jan  log  factor        1.0000       1.00000E-10   1.00000E+10  rch_bias       1.000       0.000        1
rchmult_feb  log  factor        1.0000       1.00000E-10   1.00000E+10  rch_bias       1.000       0.000        1
rchmult_mar  log  factor        1.0000       1.00000E-10   1.00000E+10  rch_bias       1.000       0.000        1
rchmult_apr  log  factor        1.0000       1.00000E-10   1.00000E+10  rch_bias       1.000       0.000        1
rchmult_may  log  factor        1.0000       1.00000E-10   1.00000E+10  rch_bias       1.000       0.000        1
rchmult_jun  log  factor        1.0000       1.00000E-10   1.00000E+10  rch_bias       1.000       0.000        1
rchmult_jul  log  factor        1.0000       1.00000E-10   1.00000E+10  rch_bias       1.000       0.000        1
rchmult_aug  log  factor        1.0000       1.00000E-10   1.00000E+10  rch_bias       1.000       0.000        1
rchmult_sep  log  factor        1.0000       1.00000E-10   1.00000E+10  rch_bias       1.000       0.000        1
rchmult_oct  log  factor        1.0000       1.00000E-10   1.00000E+10  rch_bias       1.000       0.000        1
rchmult_nov  log  factor        1.0000       1.00000E-10   1.00000E+10  rch_bias       1.000       0.000        1
rchmult_dec  log  factor        1.0000       1.00000E-10   1.00000E+10  rch_bias       1.000       0.000        1
evtmult_jan  log  factor       0.70000       1.00000E-10   1.00000E+10  extdp_bias     1.000       0.000        1
depth_jan    log  factor        2.0000       1.00000E-10   1.00000E+10  et_bias        1.000       0.000        1
evtmult_feb  log  factor       0.70000       1.00000E-10   1.00000E+10  extdp_bias     1.000       0.000        1
depth_feb    log  factor        2.0000       1.00000E-10   1.00000E+10  et_bias        1.000       0.000        1
evtmult_mar  log  factor       0.70000       1.00000E-10   1.00000E+10  extdp_bias     1.000       0.000        1
depth_mar    log  factor        2.0000       1.00000E-10   1.00000E+10  et_bias        1.000       0.000        1
evtmult_apr  log  factor       0.70000       1.00000E-10   1.00000E+10  extdp_bias     1.000       0.000        1
depth_apr    log  factor        2.0000       1.00000E-10   1.00000E+10  et_bias        1.000       0.000        1
evtmult_may  log  factor       0.70000       1.00000E-10   1.00000E+10  extdp_bias     1.000       0.000        1
depth_may    log  factor        2.0000       1.00000E-10   1.00000E+10  et_bias        1.000       0.000        1
evtmult_jun  log  factor       0.70000       1.00000E-10   1.00000E+10  extdp_bias     1.000       0.000        1
depth_jun    log  factor        2.0000       1.00000E-10   1.00000E+10  et_bias        1.000       0.000        1
evtmult_jul  log  factor       0.70000       1.00000E-10   1.00000E+10  extdp_bias     1.000       0.000        1
depth_jul    log  factor        2.0000       1.00000E-10   1.00000E+10  et_bias        1.000       0.000        1
evtmult_aug  log  factor       0.70000       1.00000E-10   1.00000E+10  extdp_bias     1.000       0.000        1
depth_aug    log  factor        2.0000       1.00000E-10   1.00000E+10  et_bias        1.000       0.000        1
evtmult_sep  log  factor       0.70000       1.00000E-10   1.00000E+10  extdp_bias     1.000       0.000        1
depth_sep    log  factor        2.0000       1.00000E-10   1.00000E+10  et_bias        1.000       0.000        1
evtmult_oct  log  factor       0.70000       1.00000E-10   1.00000E+10  extdp_bias     1.000       0.000        1
depth_oct    log  factor        2.0000       1.00000E-10   1.00000E+10  et_bias        1.000       0.000        1
evtmult_nov  log  factor       0.70000       1.00000E-10   1.00000E+10  extdp_bias     1.000       0.000        1
depth_nov    log  factor        2.0000       1.00000E-10   1.00000E+10  et_bias        1.000       0.000        1
evtmult_dec  log  factor       0.70000       1.00000E-10   1.00000E+10  extdp_bias     1.000       0.000        1
depth_dec    log  factor        2.0000       1.00000E-10   1.00000E+10  et_bias        1.000       0.000        1
* observation groups
ghbdy
ghbwt
hd01rd
hd03rd
hd05rd
hd06rd
hd07rd
hd08rd
hd01dd
hd03dd
hd05dd
hd06dd
hd07dd
hd08dd
hd01wk
hd03wk
hd05wk
hd06wk
hd07wk
hd08wk
hd01mn
hd03mn
hd05mn
hd06mn
hd07mn
hd08mn
hd01av
hd03av
hd05av
hd06av
hd07av
hd08av
qe64tb
qe247tb
qe192tb
qe146tb
qe105tb
qe144tb
qe224tb
qe304tb
qe37tb
qe69tb
qe264tb
qe114tb
qe509tb
qe535tb
qe523tb
qe64vs
qe247vs
qe192vs
qe146vs
qe105vs
qe144vs
qe224vs
qe304vs
qe37vs
qe69vs
qe264vs
qe114vs
qe509vs
qe535vs
qe523vs
st64rd
st247rd
st192rd
st146rd
st105rd
st144rd
st224rd
st304rd
st37rd
st69rd
st264rd
st114rd
st509rd
st535rd
st523rd
st64dd
st247dd
st192dd
st146dd
st105dd
st144dd
st224dd
st304dd
st37dd
st69dd
st264dd
st114dd
st509dd
st535dd
st523dd
c_100pd
c_100pw
l_31npd
l_31npw
c_2pd
c_2pw
l_30pd
l_30pw
qballpd
* observation data
ghbdy_1               2.9112038E+08    1.000000E-06  ghbdy
ghbwt_1               2.2228966E+08    1.000000E-06  ghbwt
hd01rd_1              0.4562346         1.00000      hd01rd
hd01rd_2              0.4502906         1.00000      hd01rd
hd01rd_3              0.4561193         1.00000      hd01rd
hd01rd_4              0.4640576         1.00000      hd01rd
hd01rd_5              0.4663763         1.00000      hd01rd
hd01rd_6              0.4741289         1.00000      hd01rd
hd01rd_7              0.4736358         1.00000      hd01rd
hd01rd_8              0.4636699         1.00000      hd01rd
hd01rd_9              0.4664353         1.00000      hd01rd
hd01rd_10             0.4732874         1.00000      hd01rd
hd01rd_11             0.4796998         1.00000      hd01rd
hd01rd_12             0.5002983         1.00000      hd01rd
hd01rd_13             0.4932832         1.00000      hd01rd
hd01rd_14             0.5120271         1.00000      hd01rd
hd01rd_15             0.5153033         1.00000      hd01rd
hd01rd_16             0.4914241         1.00000      hd01rd
hd01rd_17             0.5187716         1.00000      hd01rd
hd01rd_18             0.5209076         1.00000      hd01rd
hd01rd_19             0.5135775         1.00000      hd01rd
hd01rd_20             0.4700877         1.00000      hd01rd
hd01rd_21             0.4753653         1.00000      hd01rd
hd01rd_22             0.4908632         1.00000      hd01rd
hd01rd_23             0.4293389         1.00000      hd01rd
hd01rd_24             0.5070659         1.00000      hd01rd
hd01rd_25             0.4999764         1.00000      hd01rd
hd01rd_26             0.4943750         1.00000      hd01rd
hd01rd_27             0.5075109         1.00000      hd01rd
hd01rd_28             0.5141576         1.00000      hd01rd
hd01rd_29             0.5187649         1.00000      hd01rd
hd01rd_30             0.5210558         1.00000      hd01rd
hd01rd_31             0.5213153         1.00000      hd01rd
hd01rd_32             0.5211632         1.00000      hd01rd
hd01rd_33             0.5231206         1.00000      hd01rd
hd01rd_34             0.5207118         1.00000      hd01rd
hd01rd_35             0.5212735         1.00000      hd01rd
hd01rd_36             0.5224186         1.00000      hd01rd
hd01rd_37             0.5154502         1.00000      hd01rd
hd01rd_38             0.5192776         1.00000      hd01rd
hd01rd_39             0.5018741         1.00000      hd01rd
hd01rd_40             0.4934056         1.00000      hd01rd
hd01rd_41             0.4940560         1.00000      hd01rd
hd01rd_42             0.4980403         1.00000      hd01rd
hd01rd_43             0.4980607         1.00000      hd01rd
hd01rd_44             0.4988299         1.00000      hd01rd
hd01rd_45             0.5026713         1.00000      hd01rd
hd01rd_46             0.4899073         1.00000      hd01rd
hd01rd_47             0.5060261         1.00000      hd01rd
hd01rd_48             0.5027251         1.00000      hd01rd
hd01rd_49             0.5151967         1.00000      hd01rd
hd01rd_50             0.5067625         1.00000      hd01rd
hd01rd_51             0.5034053         1.00000      hd01rd
hd01rd_52             0.5000442         1.00000      hd01rd
hd01rd_53             0.5063491         1.00000      hd01rd
hd01rd_54             0.5105881         1.00000      hd01rd
hd01rd_55             0.5228111         1.00000      hd01rd
hd01rd_56             0.5185064         1.00000      hd01rd
hd01rd_57             0.5222892         1.00000      hd01rd
hd01rd_58             0.5224616         1.00000      hd01rd
hd01rd_59             0.5207405         1.00000      hd01rd
hd01rd_60             0.5224370         1.00000      hd01rd
hd01rd_61             0.5228124         1.00000      hd01rd
hd01rd_62             0.5192562         1.00000      hd01rd
hd01rd_63             0.5066428         1.00000      hd01rd
hd01rd_64             0.5160725         1.00000      hd01rd
hd01rd_65             0.5157878         1.00000      hd01rd
hd01rd_66             0.5294822         1.00000      hd01rd
hd01rd_67             0.5270858         1.00000      hd01rd
hd01rd_68             0.5300219         1.00000      hd01rd
hd01rd_69             0.5261602         1.00000      hd01rd
hd01rd_70             0.5262650         1.00000      hd01rd
hd01rd_71             0.5228830         1.00000      hd01rd
hd01rd_72             0.5214247         1.00000      hd01rd
hd01rd_73             0.6176397         1.00000      hd01rd
hd01rd_74             0.6100228         1.00000      hd01rd
hd01rd_75             0.5988008         1.00000      hd01rd
hd01rd_76             0.5897239         1.00000      hd01rd
hd01rd_77             0.5768480         1.00000      hd01rd
hd01rd_78             0.5646975         1.00000      hd01rd
hd01rd_79             0.5585517         1.00000      hd01rd
hd01rd_80             0.5931346         1.00000      hd01rd
hd01rd_81             0.5834823         1.00000      hd01rd
hd01rd_82             0.5823283         1.00000      hd01rd
hd01rd_83             0.6026590         1.00000      hd01rd
hd01rd_84             0.6009815         1.00000      hd01rd
hd01rd_85             0.5999439         1.00000      hd01rd
hd01rd_86             0.5816698         1.00000      hd01rd
hd01rd_87             0.5650691         1.00000      hd01rd
hd01rd_88             0.5543490         1.00000      hd01rd
hd01rd_89             0.5639515         1.00000      hd01rd
hd01rd_90             0.5619861         1.00000      hd01rd
hd01rd_91             0.5644504         1.00000      hd01rd
hd01rd_92             0.5652842         1.00000      hd01rd
hd01rd_93             0.5638471         1.00000      hd01rd
hd01rd_94             0.5605835         1.00000      hd01rd
hd01rd_95             0.5528821         1.00000      hd01rd
hd01rd_96             0.5568535         1.00000      hd01rd
hd01rd_97             0.5503500         1.00000      hd01rd
hd01rd_98             0.5496391         1.00000      hd01rd
hd01rd_99             0.5473556         1.00000      hd01rd
hd01rd_100            0.5681018         1.00000      hd01rd
hd01rd_101            0.5808055         1.00000      hd01rd
hd01rd_102            0.5690151         1.00000      hd01rd
hd01rd_103            0.5549914         1.00000      hd01rd
hd01rd_104            0.5527772         1.00000      hd01rd
hd01rd_105            0.5463506         1.00000      hd01rd
hd01rd_106            0.5389314         1.00000      hd01rd
hd01rd_107            0.5387390         1.00000      hd01rd
hd01rd_108            0.5326124         1.00000      hd01rd
hd01rd_109            0.5415039         1.00000      hd01rd
hd01rd_110            0.5440819         1.00000      hd01rd
hd01rd_111            0.5510863         1.00000      hd01rd
hd01rd_112            0.5544215         1.00000      hd01rd
hd01rd_113            0.5582314         1.00000      hd01rd
hd01rd_114            0.5489340         1.00000      hd01rd
hd01rd_115            0.5486429         1.00000      hd01rd
hd01rd_116            0.9382393         1.00000      hd01rd
hd01rd_117            0.6963446         1.00000      hd01rd
hd01rd_118            0.5696502         1.00000      hd01rd
hd01rd_119            0.5811049         1.00000      hd01rd
hd01rd_120            0.6022826         1.00000      hd01rd
hd01rd_121            0.6035753         1.00000      hd01rd
hd01rd_122            0.6734990         1.00000      hd01rd
hd01rd_123            0.5874476         1.00000      hd01rd
hd01rd_124            0.6284850         1.00000      hd01rd
hd01rd_125            0.7088861         1.00000      hd01rd
hd01rd_126            0.7183080         1.00000      hd01rd
hd01rd_127            0.7105728         1.00000      hd01rd
hd01rd_128            0.6998879         1.00000      hd01rd
hd01rd_129            0.6819944         1.00000      hd01rd
hd01rd_130            0.6658731         1.00000      hd01rd
hd01rd_131            0.6701522         1.00000      hd01rd
hd01rd_132            0.7144329         1.00000      hd01rd
hd01rd_133            0.7663320         1.00000      hd01rd
hd01rd_134            0.7567555         1.00000      hd01rd
hd01rd_135            0.7405276         1.00000      hd01rd
hd01rd_136            0.7277851         1.00000      hd01rd
hd01rd_137            0.7110840         1.00000      hd01rd
hd01rd_138            0.6972681         1.00000      hd01rd
hd01rd_139            0.6864809         1.00000      hd01rd
hd01rd_140            0.6741116         1.00000      hd01rd
hd01rd_141            0.6688092         1.00000      hd01rd
hd01rd_142            0.6497196         1.00000      hd01rd
hd01rd_143            0.6345309         1.00000      hd01rd
hd01rd_144            0.6364723         1.00000      hd01rd
hd01rd_145            0.6230381         1.00000      hd01rd
hd01rd_146            0.6293720         1.00000      hd01rd
hd01rd_147            0.6209414         1.00000      hd01rd
hd01rd_148            0.6402245         1.00000      hd01rd
hd01rd_149            0.6470134         1.00000      hd01rd
hd01rd_150            0.6517969         1.00000      hd01rd
hd01rd_151            0.6461776         1.00000      hd01rd
hd01rd_152            0.6519362         1.00000      hd01rd
hd01rd_153            0.7122223         1.00000      hd01rd
hd01rd_154            0.7197248         1.00000      hd01rd
hd01rd_155            0.6743392         1.00000      hd01rd
hd01rd_156            0.6489912         1.00000      hd01rd
hd01rd_157            0.6475849         1.00000      hd01rd
hd01rd_158            0.6574154         1.00000      hd01rd
hd01rd_159            0.6861420         1.00000      hd01rd
hd01rd_160            0.7727242         1.00000      hd01rd
hd01rd_161            0.9407032         1.00000      hd01rd
hd01rd_162            0.8450884         1.00000      hd01rd
hd01rd_163            0.7953880         1.00000      hd01rd
hd01rd_164            0.7395280         1.00000      hd01rd
hd01rd_165            0.6828606         1.00000      hd01rd
hd01rd_166            0.6440293         1.00000      hd01rd
hd01rd_167            0.6051216         1.00000      hd01rd
hd01rd_168            0.5877531         1.00000      hd01rd
hd01rd_169            0.5420260         1.00000      hd01rd
hd01rd_170            0.5160837         1.00000      hd01rd
hd01rd_171            0.5043009         1.00000      hd01rd
hd01rd_172            0.4723461         1.00000      hd01rd
hd01rd_173            0.4591441         1.00000      hd01rd
hd01rd_174            0.4831235         1.00000      hd01rd
hd01rd_175            0.5923160         1.00000      hd01rd
hd01rd_176            0.6362608         1.00000      hd01rd
hd01rd_177            0.6456605         1.00000      hd01rd
hd01rd_178            0.6473760         1.00000      hd01rd
hd01rd_179            0.6453833         1.00000      hd01rd
hd01rd_180            0.6398106         1.00000      hd01rd
hd01rd_181            0.6468334         1.00000      hd01rd
hd01rd_182            0.6424670         1.00000      hd01rd
hd01rd_183            0.6376905         1.00000      hd01rd
hd01rd_184            0.6313981         1.00000      hd01rd
hd01rd_185            0.6562457         1.00000      hd01rd
hd01rd_186            0.6475425         1.00000      hd01rd
hd01rd_187            0.6449090         1.00000      hd01rd
hd01rd_188            0.6357414         1.00000      hd01rd
hd01rd_189            0.5121143         1.00000      hd01rd
hd01rd_190            0.4343071         1.00000      hd01rd
hd01rd_191            0.4534586         1.00000      hd01rd
hd01rd_192            0.5884635         1.00000      hd01rd
hd01rd_193            0.6407454         1.00000      hd01rd
hd01rd_194            0.6355189         1.00000      hd01rd
hd01rd_195            0.6667217         1.00000      hd01rd
hd01rd_196            0.6697314         1.00000      hd01rd
hd01rd_197            0.6671336         1.00000      hd01rd
hd01rd_198            0.6651021         1.00000      hd01rd
hd01rd_199            0.6657578         1.00000      hd01rd
hd01rd_200            0.7113225         1.00000      hd01rd
hd01rd_201            0.7137886         1.00000      hd01rd
hd01rd_202            0.6833552         1.00000      hd01rd
hd01rd_203            0.7060699         1.00000      hd01rd
hd01rd_204            0.7066351         1.00000      hd01rd
hd01rd_205            0.6944037         1.00000      hd01rd
hd01rd_206            0.6814957         1.00000      hd01rd
hd01rd_207            0.6712424         1.00000      hd01rd
hd01rd_208            0.6670305         1.00000      hd01rd
hd01rd_209            0.6555043         1.00000      hd01rd
hd01rd_210            0.6503310         1.00000      hd01rd
hd01rd_211            0.6447232         1.00000      hd01rd
hd01rd_212            0.6334484         1.00000      hd01rd
hd01rd_213            0.6325339         1.00000      hd01rd
hd01rd_214            0.6250153         1.00000      hd01rd
hd01rd_215            0.6237044         1.00000      hd01rd
hd01rd_216            0.6299103         1.00000      hd01rd